#Set velocity (in km/s)
variable v equal 7

#Controls angle of impact
#a = angle from horizontal/10
variable        a equal 9

#Loop through the simulation several times with different random seeds
variable        b equal 1
label           loopb
variable        seed equal 240323*$b
variable        seed equal 240323*1

#Set up impact simulation
print		"<<<<<<<<< Vel=$v, Angle=$a, Test=$b >>>>>>>>>>>"
<<<<<<<<< Vel=7, Angle=9, Test=1 >>>>>>>>>>>
units	        real
newton	     	on
atom_style full

#Periodic boundary conditions
boundary        p p p

#Read the data file
read_data       data.pth2o
  triclinic box = (0 0 0) to (44.3939 44.3939 50) with tilt (0 0 0)
  reading atoms ...
  1539 atoms

#Obtain the REAX pair coefficients from the ffield file
pair_style      reax/c NULL safezone 5.0 mincap 1200
pair_coeff  	* * ffield.reax Pt H O

#Apply qeq charge equilibration
fix 		qeq all qeq/reax 1 0.0 10.0 1.0e-6 reax/c

#Details of how lammps computes neighboring atoms for pairwise interactions
neighbor        2.5  bin
neigh_modify    delay 10 every 2 check yes one 15000 page 150000

#group impacting H2O by atom ids
group impactor id 1537:1539
3 atoms in group impactor

#Print thermodynamic data every 10 steps
thermo          10

#Randomize initial position and set far to equilibrate
displace_atoms 	impactor move 20.0 20.0 0.0 units box

#Compute the center of mass of the impactor
compute         cmi impactor com
variable        xd equal c_cmi[1]
variable        yd equal c_cmi[2]
variable        zd equal c_cmi[3]
variable        ranangle equal random(0,90,240323)
thermo_style    custom step etotal pe ke temp press vol c_cmi[1] c_cmi[2] c_cmi[3]

#Rotate the impactor before beginning simulation
>>>>>> Rotated impactor by 38.1471168994904 <<<<<<<
run 0
  update every 2 steps, delay 10 steps, check yes
Step TotEng PotEng KinEng Temp Press Volume c_cmi[1] c_cmi[2] c_cmi[3]
0   -175150.65   -175150.65            0            0   -10243.304    98540.745    22.227217    20.053875    32.690199
Loop time of 2.14577e-06 on 1 procs for 0 steps with 1539 atoms

displace_atoms  impactor rotate 22.22721660746 20.053874955595 32.6901990754796 0.0 0.0 1.0 6.82583034038544
displace_atoms  impactor rotate 22.22721660746 20.053874955595 32.6901990754796 0.0 1.0 0.0 4.71330642700195
displace_atoms  impactor rotate 22.22721660746 20.053874955595 32.6901990754796 1.0 0.0 0.0 0.0323742628097534

#Simulation timestep
timestep  	0.1

#Print data to lammptrj file
dump            1 all custom 100  pth2o.$v.lammpstrj id type x y z vx vy vz
dump            1 all custom 100  pth2o.7.lammpstrj id type x y z vx vy vz
dump_modify     1 sort id

#First, minimize structure
min_style       cg
minimize        0.0 1e-6 2000 5000
Step TotEng PotEng KinEng Temp Press Volume c_cmi[1] c_cmi[2] c_cmi[3]
0   -175150.65   -175150.65            0            0   -10243.304    98540.745    22.227217    20.053875    32.690199
Loop time of 44.6415 on 1 procs for 108 steps with 1539 atoms

Minimization stats:
  Stopping criterion = linesearch alpha is zero
  Energy initial, next-to-last, final =
  Force two-norm initial, final = 630.233 0.0253096
  Force max component initial, final = 45.9564 0.0115236
  Final line search alpha, max atom move = 3.05176e-05 3.51673e-07
  Iterations, force evaluations = 108 259

#Then, run equilibration
velocity 	all create 100.0 4928459 rot yes dist gaussian #generates initial velocities at 100 K  via a gaussian distribution
fix 		equil all nvt temp 100.0 100.0 50.0 #nvt dynamics on all atoms at starting and ending temps of 100 K w 50 fs damping
run 		500
Step TotEng PotEng KinEng Temp Press Volume c_cmi[1] c_cmi[2] c_cmi[3]
108   -193267.99   -193726.44    458.44859          100     2378.811    98540.745     22.23525    20.050627    32.695376
Loop time of 87.1589 on 1 procs for 500 steps with 1539 atoms

unfix 		equil

#Bring the impactor close to the surface
displace_atoms  impactor move 0.0 0.0 -15.0 units box

#Give the impactor a velocity toward the surface
variable 	impv equal $v*-0.01
variable 	impv equal 7*-0.01
variable 	ang equal PI*$a*10/180.0
variable 	ang equal PI*9*10/180.0
variable 	vy equal -0.07*cos(1.5707963267949)
variable 	vz equal -0.07*sin(1.5707963267949)
velocity 	impactor set NULL 2.44403693719019e-16 -0.07 sum yes units box

#Guess the number of steps that will be needed
variable impsteps equal ceil(-20/-0.07*10)

#Run the impact simulation
fix  		dyn all nve
fix 		frags all reax/c/species 10 10 100 species.$b.$a.out element Pt H O cutoff 2 2 .88 cutoff 3 3 .88 cutoff 2 3 .88
fix 		frags all reax/c/species 10 10 100 species.1.$a.out element Pt H O cutoff 2 2 .88 cutoff 3 3 .88 cutoff 2 3 .88
fix 		frags all reax/c/species 10 10 100 species.1.9.out element Pt H O cutoff 2 2 .88 cutoff 3 3 .88 cutoff 2 3 .88
fix  		bonds all reax/c/bonds 100 bonds.reaxc.1.9.pth2o
run 		2858
Step TotEng PotEng KinEng Temp Press Volume c_cmi[1] c_cmi[2] c_cmi[3]
608   -193138.08   -193352.61    214.52557    46.793812    2952.6173    98540.745    22.220604    20.206815    17.662923
Averages over the last 144 of 288 rows, steps 2040 to 3466:
TotEng PotEng KinEng Temp Press Volume c_cmi[1] c_cmi[2] c_cmi[3]
-193137 -193458 320.958 70.0097 2188.07 98540.7 20.0032 20.0286 17.8921
Loop time of 504.089 on 1 procs for 2858 steps with 1539 atoms

#Exit the simulation
unfix		qeq
unfix		dyn
unfix		frags
unfix		bonds
clear

Please see the log.cite file for references relevant to this simulation
